1

   Abaqus 6.14-1                                  Date 02-May-2015   Time 12:17:41
   For use at UNIVERSITY OF NEW MEXICO under license from Dassault Systemes or its subsidiary.



                         The Abaqus Software is a product of:

                           Dassault Systemes Simulia Corp.
                                 Rising Sun Mills
                                 166 Valley Street
                           Providence, RI 02909-2499, USA
 


                   Available for internal use at UNIVERSITY OF NEW MEXICO. 
                   The Abaqus Online Support System is accessible
                   through the "My Support" section of the SIMULIA
                   Home Page at http://www.simulia.com.

                   Support policies for academic licenses are described
                   on the SIMULIA web site at
                   http://www.3ds.com/products/simulia/academics/
 
                          On machine CIVIL-DF84D9Z1 
                          you are authorized to run
                           until 31-May-2015

                          Your site id is: 200000000002501 


 
                    For assistance or any other information you may
                    obtain contact information for your local office
                    from the world wide web at:

                      http://www.3ds.com/products/simulia/locations/

 
                * * * * * * * * * * * * * * * * * * * * * * * * * * * * * * 
                *                                                         * 
                *                   *****************                     * 
                *                   *  N O T I C E  *                     * 
                *                   *****************                     * 
                *                                                         * 
                *                                                         * 
                *                    Abaqus 6.14-1                        * 
                *                                                         * 
                *          BUILD ID: 2014_06_04-16.11.02 134264           * 
                *                                                         * 
                *                                                         * 
                *  Please make sure you are using release 6.14 manuals    * 
                *  plus the notes accompanying this release.              * 
                *                                                         * 
                *                                                         * 
                *                                                         * 
                *                                                         * 
                *                                                         * 
                *   This program may not be used for commercial purposes  * 
                *           without payment of a commercial fee.          * 
                *                                                         * 
                * * * * * * * * * * * * * * * * * * * * * * * * * * * * * * 


 



     PROCESSING PART, INSTANCE, AND ASSEMBLY INFORMATION
   *******************************************************


     END PROCESSING PART, INSTANCE, AND ASSEMBLY INFORMATION
   ***********************************************************




     OPTIONS BEING PROCESSED
   ***************************


  *HEADING
  *Node
  *Element, type=mass, elset=mass
  *MATERIAL, NAME=VISCOELASTIC
  *ELASTIC, MODULI=INSTANTANEOUS
  *VISCOELASTIC, TIME=CREEP TEST DATA, ERRTOL=0.1, NMAX=10
  *VOLUMETRIC TEST DATA, VOLINF=1.5
     VISCOELASTIC VOLUMETRIC TEST DATA: NO CONVERGENCE FOR N =  1
     NO. OF ITERATIONS =  6     ROOT-MEAN-SQUARE ERROR (PERCENTAGE) =  34.50
     KP(TI)  0.3333    
     TI       1394.    
  
     VISCOELASTIC VOLUMETRIC TEST DATA: CONVERGENCE FOR N =  2
     NO. OF ITERATIONS = 10     ROOT-MEAN-SQUARE ERROR (PERCENTAGE) =   7.83
     KP(TI)  0.6857     -0.3524    
     TI       2595.      5.4139E+06
  

 ***WARNING: CONVERGENCE CAN BE OBTAINED ONLY WITH NEGATIVE COEFFICIENTS FOR 
             VISCOELASTIC VOLUMETRIC TEST DATA
  *Mass, elset=mass
  *Mass, elset=mass
  *STEP, NLGEOM
  *STEP, NLGEOM
  *STEP, NLGEOM
  *STATIC

 ***WARNING: VISCOELASTIC MATERIAL PROPERTIES ARE DEFINED IN THE MODEL. THE 
             MATERIAL RESPONSE IN A STATIC ANALYSIS WILL BE BASED ON THE 
             INSTANTANEOUS ELASTIC MATERIAL PROPERTIES.
  *End Step
  *STEP, NLGEOM
  *STATIC
  *End Step
1

   Abaqus 6.14-1                                  Date 02-May-2015   Time 12:17:41
   For use at UNIVERSITY OF NEW MEXICO under license from Dassault Systemes or its subsidiary.

                                                                                     


                              E L E M E N T   D E F I N I T I O N S

       NUMBER   TYPE    PROPERTY    NODES FORMING ELEMENT
                        REFERENCE

          1   MASS          1          1





                              M A S S   P R O P E R T I E S


  PROPERTY NUMBER         1

     CONCENTRATED MASS VALUE =    1.0000    





                         P H Y S I C A L   C O N S T A N T S






                         M A T E R I A L   D E S C R I P T I O N




  MATERIAL NAME: VISCOELASTIC                                                                    


     ELASTIC         YOUNG'S    POISSON'S
                     MODULUS      RATIO

                     1.0000      0.0000    


     VISCOELASTIC - DEFINED IN THE TIME DOMAIN


          LINEAR, ISOTROPIC, PRONY SERIES DEFINITION

           I         G(I)        K(I)        TAU(I)

           1        0.0000     0.68571      2595.4    
           2        0.0000    -0.35238     5.41392E+06


          VISCOELASTIC CREEP TEST DATA


              NMAX        ERRTOL

               10     0.10000    

          VOLINF

          1.5000    


          VOLUMETRIC TEST DATA


          JK(T)         T

          1.0520      1081.0    
          2.0920      4695.0    
          2.5019      9255.0    
          2.8416      13815.    
          2.7956      18376.    
          2.9153      22936.    
          2.9317      27497.    
          2.9577      32057.    
          3.0664      36618.    
          2.9489      41178.    
          2.9926      45739.    
          3.0339      50299.    
          3.1053      54860.    
          3.0190      59420.    
          3.1427      63981.    
          3.0889      68540.    
          3.1527      73101.    
          3.1041      77661.    
          3.1640      82222.    
          3.2005      86782.    





                                 E L E M E N T   S E T S


  SET    MASS                                                                            
  MEMBERS                    1





                                 N O D E   D E F I N I T I O N S

       NODE           COORDINATES                       SINGLE POINT CONSTRAINTS 
      NUMBER                                              TYPE    PLUS    DOF

          1     0.0000       0.0000       0.0000                                                                       



                            P R O B L E M   S I Z E


          NUMBER OF ELEMENTS IS                                     1
          NUMBER OF NODES IS                                        1
          NUMBER OF NODES DEFINED BY THE USER                       1
          TOTAL NUMBER OF VARIABLES IN THE MODEL                    3
          (DEGREES OF FREEDOM PLUS MAX NO. OF ANY LAGRANGE MULTIPLIER
           VARIABLES. INCLUDE *PRINT,SOLVE=YES TO GET THE ACTUAL NUMBER.)



                              END OF USER INPUT PROCESSING



     JOB TIME SUMMARY
       USER TIME (SEC)      =   0.0000    
       SYSTEM TIME (SEC)    =  0.10000    
       TOTAL CPU TIME (SEC) =  0.10000    
       WALLCLOCK TIME (SEC) =          0
